/home/anna/Documents/benchmark/test_fegrow/inputs/ligand.pdb
     RDKit          3D

 33 34  0  0  0  0  0  0  0  0999 V2000
   -6.8099   -6.0364  -15.4673 C   0  0  0  0  0  0  0  0  0  0  0  0
   -7.3995   -4.7641  -15.5534 C   0  0  0  0  0  0  0  0  0  0  0  0
   -6.6058   -3.6425  -15.8212 C   0  0  0  0  0  0  0  0  0  0  0  0
   -8.7324   -9.2084  -16.1047 C   0  0  0  0  0  0  0  0  0  0  0  0
   -7.6405   -7.2072  -15.1610 C   0  0  0  0  0  0  0  0  0  0  0  0
   -9.5480   -9.5275  -15.0419 C   0  0  0  0  0  0  0  0  0  0  0  0
  -10.4102  -10.6196  -15.1505 C   0  0  0  0  0  0  0  0  0  0  0  0
   -5.4255   -6.1664  -15.6866 C   0  0  0  0  0  0  0  0  0  0  0  0
   -5.2210   -3.7623  -15.9955 C   0  0  0  0  0  0  0  0  0  0  0  0
   -4.6355   -5.0328  -15.9382 C   0  0  0  0  0  0  0  0  0  0  0  0
   -9.1283   -4.5567  -15.3619 Cl  0  0  0  0  0  0  0  0  0  0  0  0
   -8.1889   -7.3081  -14.0728 O   0  0  0  0  0  0  0  0  0  0  0  0
   -7.8497   -8.1562  -16.1378 N   0  0  0  0  0  0  0  0  0  0  0  0
  -10.4785  -11.3716  -16.2579 N   0  0  0  0  0  0  0  0  0  0  0  0
   -9.6920  -11.0362  -17.2696 C   0  0  0  0  0  0  0  0  0  0  0  0
   -8.8142   -9.9703  -17.2375 C   0  0  0  0  0  0  0  0  0  0  0  0
   -9.8302  -11.8204  -18.3635 N   0  0  0  0  0  0  0  0  0  0  0  0
   -8.8753  -11.9521  -19.3240 C   0  0  0  0  0  0  0  0  0  0  0  0
   -7.8239  -11.3332  -19.2271 O   0  0  0  0  0  0  0  0  0  0  0  0
   -4.6675   -7.7381  -15.6318 Cl  0  0  0  0  0  0  0  0  0  0  0  0
   -7.0851   -2.6717  -15.8915 H   0  0  0  0  0  0  0  0  0  0  0  0
   -9.5242   -8.9412  -14.1398 H   0  0  0  0  0  0  0  0  0  0  0  0
  -11.0421  -10.8789  -14.3052 H   0  0  0  0  0  0  0  0  0  0  0  0
   -4.6082   -2.8783  -16.1736 H   0  0  0  0  0  0  0  0  0  0  0  0
   -3.5624   -5.1425  -16.0840 H   0  0  0  0  0  0  0  0  0  0  0  0
   -7.4328   -7.9803  -17.0381 H   0  0  0  0  0  0  0  0  0  0  0  0
   -8.2096   -9.7212  -18.0945 H   0  0  0  0  0  0  0  0  0  0  0  0
  -10.6342  -12.4289  -18.3938 H   0  0  0  0  0  0  0  0  0  0  0  0
   -9.1907  -12.8264  -20.2998 O   0  0  0  0  0  0  0  0  0  0  0  0
   -8.2310  -12.9577  -21.3584 C   0  0  0  0  0  0  0  0  0  0  0  0
   -8.6082  -13.6674  -22.1032 H   0  0  0  0  0  0  0  0  0  0  0  0
   -8.0595  -11.9958  -21.8556 H   0  0  0  0  0  0  0  0  0  0  0  0
   -7.2765  -13.3349  -20.9731 H   0  0  0  0  0  0  0  0  0  0  0  0
  1  5  1  0
  2  1  2  0
  2 11  1  0
  3  2  1  0
  3 21  1  0
  4  6  2  0
  5 12  2  0
  6 22  1  0
  7  6  1  0
  7 23  1  0
  8 20  1  0
  8  1  1  0
  9 10  1  0
  9  3  2  0
  9 24  1  0
 10  8  2  0
 10 25  1  0
 13  4  1  0
 13  5  1  0
 13 26  1  0
 14  7  2  0
 15 16  2  0
 15 14  1  0
 16  4  1  0
 16 27  1  0
 17 15  1  0
 17 28  1  0
 18 19  2  0
 18 17  1  0
 29 30  1  0
 30 31  1  0
 30 32  1  0
 30 33  1  0
 18 29  1  0
M  END
$$$$